Circuit: * C:\Users\Isaia\Desktop\PLL\frequency_multiplier_pll_ltspice.asc

WARNING: Less than two connections to node N001.  This node is used by V1.
Direct Newton iteration for .op point succeeded.

Date: Thu Jun 18 08:06:57 2020
Total elapsed time: 8.027 seconds.

tnom = 27
temp = 27
method = modified trap
totiter = 2004990
traniter = 2004986
tranpoints = 1000717
accept = 1000422
rejected = 295
matrix size = 11
fillins = 0
solver = Normal
Matrix Compiler1: off  [0.0]/0.1/0.0
Matrix Compiler2: 481 bytes object code size  0.0/0.1/[0.0]

